Circuit: * C:\Users\Stevey\Documents\BITBA555GIT\BITBA555\BITBA555_tutorial4\Simulation\EnvelopeGeneratorRanger.asc

Direct Newton iteration for .op point succeeded.

Date: Thu May 02 20:44:08 2019
Total elapsed time: 0.042 seconds.

tnom = 27
temp = 27
method = modified trap
totiter = 2100
traniter = 2088
tranpoints = 1045
accept = 1045
rejected = 0
matrix size = 36
fillins = 42
solver = Normal
Matrix Compiler1: 3.46 KB object code size  0.6/0.3/[0.2]
Matrix Compiler2: 3.67 KB object code size  0.3/0.4/[0.3]

